Version 4.1
SHEET 1 1280 4756
WIRE -16 -1872 -96 -1872
WIRE 64 -1872 48 -1872
WIRE 208 -1872 144 -1872
WIRE 288 -1872 208 -1872
WIRE 432 -1872 368 -1872
WIRE -96 -1840 -96 -1872
WIRE 96 -1776 -96 -1776
WIRE 288 -1776 96 -1776
WIRE 304 -1776 288 -1776
WIRE 384 -1776 368 -1776
WIRE 384 -1760 384 -1776
WIRE -96 -1744 -96 -1776
WIRE 96 -1744 96 -1776
WIRE 288 -1664 288 -1776
WIRE -96 -1648 -96 -1664
WIRE 208 -1648 208 -1872
WIRE 256 -1648 208 -1648
WIRE 400 -1632 320 -1632
WIRE 432 -1632 432 -1872
WIRE 432 -1632 400 -1632
WIRE -32 -1616 -96 -1616
WIRE 16 -1616 -32 -1616
WIRE 96 -1616 96 -1664
WIRE 96 -1616 80 -1616
WIRE 256 -1616 96 -1616
WIRE 96 -1600 96 -1616
WIRE -96 -1584 -96 -1616
WIRE 288 -1552 288 -1600
WIRE 96 -1488 96 -1520
WIRE -96 -1472 -96 -1504
FLAG 288 -1552 0
FLAG -96 -1472 0
FLAG 96 -1488 0
FLAG 384 -1760 0
FLAG -96 -1648 0
FLAG -96 -1840 0
FLAG 400 -1632 Vo
FLAG -32 -1616 Vi
SYMBOL res 80 -1760 R0
WINDOW 3 -48 22 Left 1
WINDOW 0 36 40 Left 1
SYMATTR Value 100k
SYMATTR InstName R1
SYMBOL res 80 -1616 R0
WINDOW 0 36 40 Left 1
WINDOW 3 36 76 Left 1
SYMATTR InstName R2
SYMATTR Value 100k
SYMBOL res 160 -1888 R90
WINDOW 0 0 56 VBottom 1
WINDOW 3 32 56 VTop 1
SYMATTR InstName R3
SYMATTR Value 10k
SYMBOL cap 80 -1632 R90
WINDOW 0 0 32 VBottom 1
WINDOW 3 32 32 VTop 1
SYMATTR InstName C1
SYMATTR Value 2.2µf
SYMBOL res 384 -1888 R90
WINDOW 0 0 56 VBottom 1
WINDOW 3 32 56 VTop 1
SYMATTR InstName R4
SYMATTR Value 10k
SYMBOL cap 368 -1792 R90
WINDOW 0 0 32 VBottom 1
WINDOW 3 32 32 VTop 1
SYMATTR InstName C2
SYMATTR Value 0.1µf
SYMBOL voltage -96 -1760 R0
WINDOW 0 22 19 Left 1
WINDOW 123 0 0 Left 0
WINDOW 39 0 0 Left 0
WINDOW 3 -6 54 Left 1
SYMATTR InstName V1
SYMATTR Value 9v
SYMBOL voltage -96 -1600 R0
WINDOW 0 -14 56 Left 1
WINDOW 3 9 110 Left 1
WINDOW 123 0 0 Left 0
WINDOW 39 0 0 Left 0
SYMATTR InstName V2
SYMATTR Value SINE(0 .01 {fs})
SYMBOL cap 48 -1888 R90
WINDOW 0 61 28 VBottom 1
WINDOW 3 -36 35 VTop 1
SYMATTR InstName C3
SYMATTR Value 1.5µf
SYMBOL OpAmps\\opamp2 288 -1696 R0
WINDOW 0 16 32 Left 1
WINDOW 3 16 96 Left 1
SYMATTR InstName U1
SYMATTR Value opa1656
TEXT -80 -1384 Left 2 !.tran {5/fs}
TEXT -80 -1432 Left 2 !.inc opa1656.lib
TEXT -80 -1408 Left 2 !.param fs=4kHz
TEXT -144 -1976 Left 4 ;OPA1656 Tester
TEXT -144 -1944 Left 2 ;11/26/22
