Version 4.1
SHEET 1 880 680
FLAG 208 176 0
TEXT 144 224 Left 2 !.inc opa1656.lib
TEXT 144 256 Left 2 !.tran {50/fs}
TEXT 144 288 Left 2 !.param fs=4kHz
