Version 4.1
SHEET 1 1064 680
WIRE -224 -352 -288 -352
WIRE 160 -352 -144 -352
WIRE 272 -352 160 -352
WIRE 752 -352 272 -352
WIRE 160 -240 160 -352
WIRE 752 -176 752 -352
WIRE 752 -176 544 -176
WIRE -288 -128 -288 -352
WIRE -224 -128 -288 -128
WIRE 16 -128 -144 -128
WIRE 160 -128 160 -176
WIRE 160 -128 80 -128
WIRE 448 -128 160 -128
WIRE 672 -128 448 -128
WIRE 160 -80 160 -128
WIRE 752 -80 752 -176
WIRE 672 -64 672 -128
WIRE 688 -64 672 -64
WIRE 608 -32 592 -32
WIRE 704 -32 672 -32
WIRE 976 -16 864 -16
WIRE 592 0 592 -32
WIRE 704 0 592 0
WIRE 272 32 272 -352
WIRE 688 32 672 32
WIRE 976 48 976 -16
WIRE -288 128 -288 -128
WIRE -224 128 -288 128
WIRE 16 128 -144 128
WIRE 272 128 272 96
WIRE 272 128 80 128
WIRE 336 128 272 128
WIRE 672 128 672 32
WIRE 672 128 336 128
WIRE 272 160 272 128
WIRE 752 160 752 48
WIRE 752 160 640 160
WIRE 336 176 336 128
WIRE 448 176 448 -128
WIRE 544 192 544 -176
WIRE 640 192 640 160
WIRE -288 288 -288 128
WIRE -192 288 -288 288
WIRE 336 288 336 256
WIRE 336 288 -192 288
WIRE 448 288 448 256
WIRE 448 288 336 288
WIRE 544 288 544 256
WIRE 544 288 448 288
WIRE 640 288 640 256
WIRE 640 288 544 288
WIRE 976 288 976 128
WIRE 976 288 640 288
WIRE -192 320 -192 288
WIRE -288 528 -288 288
WIRE -224 528 -288 528
WIRE 160 528 160 -16
WIRE 160 528 -144 528
WIRE 272 528 272 224
WIRE 272 528 160 528
WIRE 752 528 752 160
WIRE 752 528 272 528
FLAG -192 320 0
SYMBOL INA217 784 -16 R0
SYMATTR InstName U1
SYMBOL voltage -128 -128 R90
WINDOW 0 47 21 VRight 2
WINDOW 3 -48 -32 VRight 2
WINDOW 123 0 0 Left 0
WINDOW 39 0 0 Left 0
SYMATTR InstName XLR_3
SYMATTR Value SINE(0 2m 1K)
SYMBOL voltage -128 128 R90
WINDOW 0 47 21 VRight 2
WINDOW 3 -48 -32 VRight 2
WINDOW 123 0 0 Left 0
WINDOW 39 0 0 Left 0
SYMATTR InstName XLR_2
SYMATTR Value SINE(0 -2m 1K)
SYMBOL cap 80 -144 R90
WINDOW 0 0 32 VBottom 2
WINDOW 3 32 32 VTop 2
SYMATTR InstName C1
SYMATTR Value 1µF
SYMBOL cap 80 112 R90
WINDOW 0 0 32 VBottom 2
WINDOW 3 32 32 VTop 2
SYMATTR InstName C2
SYMATTR Value 1µF
SYMBOL voltage -128 -352 R90
WINDOW 0 -32 56 VBottom 2
WINDOW 3 32 56 VTop 2
WINDOW 123 0 0 Left 0
WINDOW 39 0 0 Left 0
SYMATTR InstName V1
SYMATTR Value 5V
SYMBOL voltage -128 528 R90
WINDOW 0 -32 56 VBottom 2
WINDOW 3 32 56 VTop 2
SYMATTR InstName V2
SYMATTR Value -5V
SYMBOL diode 176 -176 R180
WINDOW 0 24 64 Left 2
WINDOW 3 24 0 Left 2
SYMATTR InstName D1
SYMATTR Value 1N4148
SYMBOL diode 176 -16 R180
WINDOW 0 24 64 Left 2
WINDOW 3 24 0 Left 2
SYMATTR InstName D2
SYMATTR Value 1N4148
SYMBOL diode 288 96 R180
WINDOW 0 24 64 Left 2
WINDOW 3 24 0 Left 2
SYMATTR InstName D3
SYMATTR Value 1N4148
SYMBOL diode 288 224 R180
WINDOW 0 24 64 Left 2
WINDOW 3 24 0 Left 2
SYMATTR InstName D4
SYMATTR Value 1N4148
SYMBOL res 320 160 R0
SYMATTR InstName R1
SYMATTR Value 2.2K
SYMBOL res 432 160 R0
SYMATTR InstName R2
SYMATTR Value 2.2K
SYMBOL cap 528 192 R0
SYMATTR InstName C3
SYMATTR Value 0.1µF
SYMBOL cap 624 192 R0
SYMATTR InstName C4
SYMATTR Value 0.1µF
SYMBOL res 960 32 R0
SYMATTR InstName R3
SYMATTR Value 1Meg
SYMBOL res2 608 -16 R270
WINDOW 0 32 32 VTop 2
WINDOW 3 0 32 VBottom 2
SYMATTR InstName R4
SYMATTR Value 1k
TEXT -256 400 Left 2 !.tran {50/fs}
TEXT -256 432 Left 2 !.param fs=4kHz
TEXT -256 368 Left 2 !.incl INA217.txt
TEXT -168 336 Left 2 ;XLR_1
