Version 4.1
SHEET 1 2164 4756
WIRE 688 -1968 -464 -1968
WIRE 512 -1920 -320 -1920
WIRE 912 -1920 512 -1920
WIRE -128 -1856 -160 -1856
WIRE 16 -1856 -48 -1856
WIRE 176 -1856 80 -1856
WIRE 256 -1856 176 -1856
WIRE 352 -1856 256 -1856
WIRE 464 -1856 432 -1856
WIRE 544 -1856 464 -1856
WIRE 656 -1856 624 -1856
WIRE 176 -1840 176 -1856
WIRE 256 -1824 256 -1856
WIRE 928 -1824 848 -1824
WIRE 1056 -1824 1008 -1824
WIRE 1184 -1824 1120 -1824
WIRE -464 -1760 -464 -1968
WIRE -320 -1760 -320 -1920
WIRE -160 -1760 -160 -1856
WIRE 512 -1760 512 -1920
WIRE 464 -1744 464 -1856
WIRE 480 -1744 464 -1744
WIRE 912 -1744 912 -1920
WIRE 656 -1728 656 -1856
WIRE 656 -1728 544 -1728
WIRE 704 -1728 656 -1728
WIRE 848 -1728 848 -1824
WIRE 848 -1728 784 -1728
WIRE 880 -1728 848 -1728
WIRE 480 -1712 464 -1712
WIRE 1184 -1712 1184 -1824
WIRE 1184 -1712 944 -1712
WIRE 1200 -1712 1184 -1712
WIRE 1360 -1712 1280 -1712
WIRE 1392 -1712 1360 -1712
WIRE 176 -1696 176 -1712
WIRE 256 -1696 256 -1744
WIRE 256 -1696 176 -1696
WIRE 336 -1696 256 -1696
WIRE 880 -1696 816 -1696
WIRE 256 -1664 256 -1696
WIRE 688 -1648 688 -1968
WIRE 1360 -1632 1360 -1712
WIRE -160 -1552 -160 -1680
WIRE -128 -1552 -160 -1552
WIRE 16 -1552 -48 -1552
WIRE 176 -1552 176 -1568
WIRE 176 -1552 80 -1552
WIRE 256 -1552 256 -1584
WIRE 256 -1552 176 -1552
WIRE 352 -1552 256 -1552
WIRE 464 -1552 464 -1712
WIRE 464 -1552 432 -1552
WIRE 544 -1552 464 -1552
WIRE 688 -1552 688 -1568
WIRE 688 -1552 624 -1552
WIRE 816 -1552 816 -1696
WIRE 816 -1552 688 -1552
WIRE 688 -1520 688 -1552
WIRE -464 -1408 -464 -1680
WIRE -320 -1408 -320 -1680
WIRE -320 -1408 -464 -1408
WIRE -112 -1408 -320 -1408
WIRE 336 -1408 336 -1696
WIRE 336 -1408 -112 -1408
WIRE 512 -1408 512 -1696
WIRE 512 -1408 336 -1408
WIRE 688 -1408 688 -1440
WIRE 688 -1408 512 -1408
WIRE 912 -1408 912 -1680
WIRE 912 -1408 688 -1408
WIRE 1360 -1408 1360 -1552
WIRE 1360 -1408 912 -1408
WIRE -112 -1376 -112 -1408
FLAG -112 -1376 0
SYMBOL OpAmps\\opamp2 512 -1792 R0
WINDOW 0 16 32 Left 1
WINDOW 3 16 96 Left 1
SYMATTR InstName U1
SYMATTR Value opa1656
SYMBOL OpAmps\\opamp2 912 -1776 R0
WINDOW 0 16 32 Left 1
WINDOW 3 16 96 Left 1
SYMATTR InstName U2
SYMATTR Value opa1656
SYMBOL Misc\\signal -160 -1776 R0
WINDOW 0 61 123 Bottom 2
WINDOW 3 -37 49 VBottom 2
WINDOW 123 0 0 Left 0
WINDOW 39 0 0 Left 0
SYMATTR InstName XLR_3
SYMATTR Value SINE(0 2m 1K)
SYMBOL voltage -320 -1776 R0
WINDOW 123 0 0 Left 0
WINDOW 39 0 0 Left 0
SYMATTR InstName V1
SYMATTR Value 5V
SYMBOL cap 80 -1568 R90
WINDOW 0 0 32 VBottom 2
WINDOW 3 32 32 VTop 2
SYMATTR InstName C3
SYMATTR Value 4.7µ
SYMBOL cap 80 -1872 R90
WINDOW 0 0 32 VBottom 2
WINDOW 3 32 32 VTop 2
SYMATTR InstName C2
SYMATTR Value 4.7µ
SYMBOL zener 160 -1840 R0
WINDOW 0 35 28 Left 2
WINDOW 3 -54 32 Left 2
SYMATTR InstName D1
SYMATTR Value 1N750
SYMBOL zener 192 -1712 R180
WINDOW 0 -35 33 Left 2
WINDOW 3 36 32 Left 2
SYMATTR InstName D2
SYMATTR Value 1N750
SYMBOL zener 160 -1696 R0
WINDOW 0 36 27 Left 2
WINDOW 3 -55 32 Left 2
SYMATTR InstName D3
SYMATTR Value 1N750
SYMBOL zener 192 -1568 R180
WINDOW 0 -34 33 Left 2
WINDOW 3 36 31 Left 2
SYMATTR InstName D4
SYMATTR Value 1N750
SYMBOL res 240 -1680 R0
SYMATTR InstName R5
SYMATTR Value 20K
SYMBOL res 240 -1840 R0
SYMATTR InstName R4
SYMATTR Value 20K
SYMBOL res 448 -1872 R90
WINDOW 0 0 56 VBottom 2
WINDOW 3 32 56 VTop 2
SYMATTR InstName R6
SYMATTR Value 1K
SYMBOL res 448 -1568 R90
WINDOW 0 0 56 VBottom 2
WINDOW 3 32 56 VTop 2
SYMATTR InstName R7
SYMATTR Value 1K
SYMBOL res 640 -1872 R90
WINDOW 0 0 56 VBottom 2
WINDOW 3 32 56 VTop 2
SYMATTR InstName R8
SYMATTR Value 14K
SYMBOL res 640 -1568 R90
WINDOW 0 0 56 VBottom 2
WINDOW 3 32 56 VTop 2
SYMATTR InstName R9
SYMATTR Value 14K
SYMBOL res 800 -1744 R90
WINDOW 0 0 56 VBottom 2
WINDOW 3 32 56 VTop 2
SYMATTR InstName R10
SYMATTR Value 1K
SYMBOL res2 1120 -1840 R90
WINDOW 0 0 32 VBottom 2
WINDOW 3 32 32 VTop 2
SYMATTR InstName Pot1
SYMATTR Value 50K
SYMBOL res 1296 -1728 R90
WINDOW 0 0 56 VBottom 2
WINDOW 3 32 56 VTop 2
SYMATTR InstName R11
SYMATTR Value 1k
SYMBOL res -32 -1872 R90
WINDOW 0 0 56 VBottom 2
WINDOW 3 32 56 VTop 2
SYMATTR InstName R13
SYMATTR Value 150
SYMBOL res -32 -1568 R90
WINDOW 0 0 56 VBottom 2
WINDOW 3 32 56 VTop 2
SYMATTR InstName R14
SYMATTR Value 150
SYMBOL res 1344 -1648 R0
SYMATTR InstName R12
SYMATTR Value 1000000
SYMBOL res 704 -1552 R180
WINDOW 0 36 76 Left 2
WINDOW 3 36 40 Left 2
SYMATTR InstName R15
SYMATTR Value 500
SYMBOL res 704 -1424 R180
WINDOW 0 36 76 Left 2
WINDOW 3 36 40 Left 2
SYMATTR InstName R16
SYMATTR Value 500
SYMBOL voltage -464 -1776 R0
WINDOW 123 0 0 Left 0
WINDOW 39 0 0 Left 0
SYMATTR InstName V2
SYMATTR Value 3.3V
SYMBOL res 1024 -1840 R90
WINDOW 0 0 56 VBottom 2
WINDOW 3 32 56 VTop 2
SYMATTR InstName R1
SYMATTR Value 12K
TEXT 592 -1328 Left 2 !.tran {100/fs}
TEXT 592 -1376 Left 2 !.inc opa1656.lib
TEXT 592 -1352 Left 2 !.param fs=4kHz
TEXT -288 -1344 Left 2 ;XLR_1 (+GND)
TEXT 1352 -1736 Left 2 ;Output
TEXT -136 -1768 Left 2 ;XLR_2
